 96
Optimized geometry at MP2/cc-pVDZ E -1552.8289280459
 H                    -13.37003   2.35617  -1.86965
 C                    -13.05307   2.09249  -0.8433
 C                    -13.69411   0.88652   1.23893
 C                    -11.66018   0.13038  -0.06686
 C                    -12.69417  -0.26066   1.00037
 C                    -11.84056   1.18541  -0.9233
 C                    -14.21782   1.48327  -0.06436
 H                    -13.18539   1.6852    1.81375
 C                    -10.87058   1.5584   -2.02066
 C                    -13.44438  -1.53089   0.55105
 H                    -14.98645   2.24984   0.13807
 H                    -14.70126   0.69909  -0.67398
 H                    -12.74628   3.04952  -0.37135
 H                    -14.52174   0.51251   1.87067
 C                    -10.46963  -0.74178  -0.1218
 C                    -11.98466  -0.5519    2.33593
 H                    -14.16195  -1.84522   1.33116
 H                    -12.74729  -2.36986   0.38381
 H                    -13.99909  -1.36363  -0.38691
 H                    -12.73495  -0.75037   3.12296
 H                    -11.3725   0.31165   2.64909
 H                    -11.32113  -1.42984   2.26613
 H                    -10.12927   0.77084  -2.21763
 H                    -10.32368   2.48652  -1.76698
 H                    -11.42606   1.76614  -2.95304
 C                    -9.17671  -0.29496  -0.12
 H                    -10.64686  -1.82546  -0.09125
 C                    -7.98831  -1.13746  -0.14642
 H                    -9.00378   0.78966  -0.07916
 C                    -6.75343  -0.52163  -0.12905
 C                    -8.17283  -2.6344   -0.19011
 C                    -5.45777  -1.15258  -0.14881
 H                    -6.75134   0.57816  -0.09585
 C                    -4.28606  -0.43003  -0.12826
 H                    -5.40319  -2.24595  -0.18138
 C                    -2.94945  -0.98681  -0.14629
 H                    -4.36062   0.66722  -0.09512
 C                    -1.87554  -0.11331  -0.12111
 C                    -2.79662  -2.48825  -0.1916
 C                    -0.47831  -0.44384  -0.13258
 H                    -2.11511   0.96012  -0.08849
 C                     0.51823   0.51083  -0.10488
 H                    -0.1742   -1.4978   -0.1647
 C                     1.91544   0.18026  -0.11638
 H                     0.21414   1.5648   -0.07275
 C                     2.98941   1.05372  -0.09125
 H                     2.15497  -0.89319  -0.149
 C                     4.32591   0.4968   -0.1096
 C                     2.83674   2.55516  -0.04572
 C                     5.49774   1.21923  -0.08899
 H                     4.40037  -0.60046  -0.14281
 C                     6.79317   0.58802  -0.11009
 H                     5.44343   2.3126   -0.0559
 C                     8.02829   1.20367  -0.09291
 H                     6.791    -0.51175  -0.14391
 C                     9.21606   0.36102  -0.12309
 C                     8.21352   2.70041  -0.04535
 C                     10.51006   0.80607  -0.10748
 H                     9.04402  -0.72452  -0.14793
 C                     11.68702  -0.08603  -0.13042
 H                     10.69058   1.88481  -0.02211
 C                     14.01881  -0.64159   0.69564
 C                     12.95396  -2.08634  -1.01844
 C                     13.70886  -2.08528   0.30858
 C                     11.8109  -1.09338  -1.05176
 C                     12.74238   0.18247   0.95236
 H                     14.58722  -0.17113  -0.13085
 H                     13.65118  -1.85662  -1.85104
 H                     13.0906  -2.56357   1.08934
 C                     10.86809  -1.3012   -2.21428
 C                     12.14804  -0.16584   2.33104
 C                     13.14306   1.67113   0.95659
 H                     14.65978  -0.59322   1.59578
 H                     12.54983  -3.09326  -1.23969
 H                     14.6369  -2.6776    0.22517
 H                     11.45751  -1.50467  -3.12766
 H                     10.21889  -0.43245  -2.39586
 H                     10.22266  -2.18532  -2.05433
 H                     13.44765   2.00117  -0.052
 H                     13.99838   1.81866   1.64033
 H                     12.32503   2.32177   1.30748
 H                     11.21746   0.40118   2.5049
 H                     12.86421   0.08629   3.13469
 H                     11.90334  -1.23879   2.40638
 H                    -8.7304   -2.98098   0.6981
 H                    -7.21729  -3.1762   -0.22335
 H                    -8.7623   -2.92538  -1.0772
 H                    -1.74459  -2.80479  -0.20189
 H                    -3.28482  -2.89892  -1.09274
 H                    -3.28351  -2.95236   0.68394
 H                     3.32531   2.96564   0.8553
 H                     1.78475   2.87178  -0.03501
 H                     3.32336   3.01935  -0.92137
 H                     8.7909    3.04662  -0.9205
 H                     8.78425   2.98986   0.8548
 H                     7.2582    3.24345  -0.03053
