24
E(HF)/aug-cc-pVTZ) = -610.883705 a.u.
O       -0.083827468      1.897380172      1.365913520
H        0.732833211      1.392037753      1.522954822
H       -0.032441821      2.142280200      0.425372834
O        1.993245633     -0.041152444      1.470024269
H        1.351090445     -0.795959714      1.524912950
H        2.695985971     -0.237817365      2.095804858
O        0.083827468     -1.897380172      1.365913520
H       -0.732833211     -1.392037753      1.522954822
H        0.032441821     -2.142280200      0.425372834
O       -1.993245633      0.041152444      1.470024269
H       -2.695985971      0.237817365      2.095804858
H       -1.351090445      0.795959714      1.524912950
O        0.041152444      1.993245633     -1.470024269
H        0.237817365      2.695985971     -2.095804858
H        0.795959714      1.351090445     -1.524912950
O        1.897380172      0.083827468     -1.365913520
H        2.142280200      0.032441821     -0.425372834
H        1.392037753     -0.732833211     -1.522954822
O       -0.041152444     -1.993245633     -1.470024269
H       -0.237817365     -2.695985971     -2.095804858
H       -0.795959714     -1.351090445     -1.524912950
O       -1.897380172     -0.083827468     -1.365913520
H       -1.392037753      0.732833211     -1.522954822
H       -2.142280200     -0.032441821     -0.425372834
